Version 4
SHEET 1 1512 808
WIRE 176 96 -48 96
WIRE 416 96 256 96
WIRE 656 96 416 96
WIRE 1056 96 656 96
WIRE 656 112 656 96
WIRE 1056 160 1056 96
WIRE 416 224 416 176
WIRE 1008 224 960 224
WIRE -48 240 -48 96
WIRE 416 368 416 304
WIRE 656 368 656 352
WIRE 656 368 416 368
WIRE 832 368 656 368
WIRE 960 368 960 224
WIRE 960 368 896 368
WIRE 416 432 416 368
WIRE -48 512 -48 320
WIRE -48 512 -64 512
WIRE 416 512 416 496
WIRE 416 512 -48 512
WIRE 688 512 416 512
WIRE 1056 512 1056 224
WIRE 1056 512 688 512
FLAG 688 512 0
SYMBOL cap 400 432 R0
SYMATTR InstName C2
SYMATTR Value 0.03µF
SYMBOL res 432 320 R180
WINDOW 0 36 76 Left 2
WINDOW 3 36 40 Left 2
SYMATTR InstName R3
SYMATTR Value 10K
SYMBOL Misc\\TRIAC 1024 160 R0
SYMATTR InstName U2
SYMATTR Value BTA12-600B
SYMBOL res 400 80 R0
SYMATTR InstName R5
SYMATTR Value 100K
SYMBOL Misc\\DIAC 896 336 R90
WINDOW 0 0 32 VBottom 2
WINDOW 3 64 32 VTop 2
SYMATTR InstName U1
SYMATTR Value DB3
SYMBOL res 272 80 R90
WINDOW 0 0 56 VBottom 2
WINDOW 3 32 56 VTop 2
SYMATTR InstName R4
SYMATTR Value 100
SYMBOL Misc\\signal -48 224 R0
WINDOW 123 0 0 Left 0
WINDOW 39 0 0 Left 0
SYMATTR InstName V2
SYMATTR Value SINE(0 220 50)
TEXT 152 648 Left 2 !.inc C:\\Program Files\\LTC\\LTspiceXVII\\lib\\standard_snubberless_triacs_pspice\\st_standard_snubberless_triacs.lib
TEXT 184 584 Left 2 !.inc C:\\Program Files\\LTC\\LTspiceXVII\\lib\\diacs_pspice\\st_diacs.lib
TEXT -104 560 Left 2 !.tran 0.1u 500ms
